<?xml version="1.0" encoding="UTF-8"?>

<!-- generated on 2025-05-09 12:07:53.320196 by osmWebWizard.py v1_23_1+0000-676720d13f6
<configuration>
    <net-file value="C:\Users\Islam\Sumo\2025-05-09-12-07-37\osm.net.xml.gz"/>
    <output-trip-file value="C:\Users\Islam\Sumo\2025-05-09-12-07-37\osm.passenger.trips.xml"/>
    <route-file value="C:\Users\Islam\Sumo\2025-05-09-12-07-37\osm.passenger.rou.xml"/>
    <prefix value="veh"/>
    <trip-attributes value="departLane=&quot;best&quot;"/>
    <fringe-start-attributes value="departSpeed=&quot;max&quot;"/>
    <vehicle-class value="passenger"/>
    <lanes value="True"/>
    <fringe-factor value="5"/>
    <allow-fringe.min-length value="1000.0"/>
    <edge-permission value="passenger"/>
    <via-edge-types value="highway.motorway,highway.motorway_link,highway.trunk_link,highway.primary_link,highway.secondary_link,highway.tertiary_link"/>
    <min-distance value="300.0"/>
    <min-distance.fringe value="10.0"/>
    <remove-loops value="True"/>
    <validate value="True"/>
    <insertion-density value="12.0"/>
</configuration>
-->

<routes xmlns:xsi="http://www.w3.org/2001/XMLSchema-instance" xsi:noNamespaceSchemaLocation="http://sumo.dlr.de/xsd/routes_file.xsd">
    <vType id="veh_passenger" vClass="passenger"/>
    <trip id="veh0" depart="0.00" from="172113839#6" to="-1092459382#1" departLane="best" type="veh_passenger"/>
    <trip id="veh1" depart="2.28" from="290784822" to="178667619#1" departLane="best" type="veh_passenger"/>
    <trip id="veh2" depart="4.55" from="1090458357" to="-1104195709#2" departLane="best" type="veh_passenger"/>
    <trip id="veh3" depart="6.83" from="-185201366#1" to="138961776#0" departLane="best" type="veh_passenger"/>
    <trip id="veh4" depart="9.11" from="-1092459373#3" to="-180862926#3" departLane="best" type="veh_passenger"/>
    <trip id="veh5" depart="11.38" from="172113859#17" to="148712505#2" departLane="best" type="veh_passenger"/>
    <trip id="veh6" depart="13.66" from="379871027#1" to="-108541212" departLane="best" type="veh_passenger"/>
    <trip id="veh7" depart="15.93" from="378371192-AddedOnRampEdge" to="240992809#1" departLane="best" type="veh_passenger"/>
    <trip id="veh8" depart="18.21" from="80877023#3" to="-638873675#0" departLane="best" type="veh_passenger"/>
    <trip id="veh9" depart="20.49" from="-138961801#7" to="-139764419#7" departLane="best" type="veh_passenger"/>
    <trip id="veh10" depart="22.76" from="52310603#5" to="172113772#0" departLane="best" type="veh_passenger"/>
    <trip id="veh11" depart="25.04" from="378371192-AddedOnRampEdge" to="266110066#3" departLane="best" type="veh_passenger"/>
    <trip id="veh12" depart="27.32" from="139184507#1" to="84951989#3" departLane="best" type="veh_passenger"/>
    <trip id="veh13" depart="29.59" from="51793804#2" to="172113783#2" departLane="best" type="veh_passenger"/>
    <trip id="veh14" depart="31.87" from="52336401#18" to="172113650#3" departLane="best" type="veh_passenger"/>
    <trip id="veh15" depart="34.15" from="240992810#2" to="-1230670187#4" departLane="best" type="veh_passenger"/>
    <trip id="veh16" depart="36.42" from="-240992809#3" to="-52159197#3" departLane="best" type="veh_passenger"/>
    <trip id="veh17" depart="38.70" from="-138961774#10" to="-265964495#4" departLane="best" type="veh_passenger"/>
    <trip id="veh18" depart="40.98" from="172113833" to="-93967943#3" departLane="best" type="veh_passenger"/>
    <trip id="veh19" depart="43.25" from="-303944211" to="721560634" departLane="best" type="veh_passenger"/>
    <trip id="veh20" depart="45.53" from="172113859#14" to="172113777#3" departLane="best" type="veh_passenger"/>
    <trip id="veh21" depart="47.80" from="-172113839#3" to="266110066#1" departLane="best" type="veh_passenger"/>
    <trip id="veh22" depart="50.08" from="-172113811" to="-995053897#3" departLane="best" type="veh_passenger"/>
    <trip id="veh23" depart="52.36" from="148712505#3" to="182810274#1" departLane="best" type="veh_passenger"/>
    <trip id="veh24" depart="54.63" from="52159197#5" to="303496561#0" departLane="best" type="veh_passenger"/>
    <trip id="veh25" depart="56.91" from="-240992809#6" to="-1153506884#0" departLane="best" type="veh_passenger"/>
    <trip id="veh26" depart="59.19" from="-52345561#3" to="-373074931#2" departLane="best" type="veh_passenger"/>
    <trip id="veh27" depart="61.46" from="-178646783#1" to="721560634" departLane="best" type="veh_passenger"/>
    <trip id="veh28" depart="63.74" from="170167984#9" to="603984469" departLane="best" type="veh_passenger"/>
    <trip id="veh29" depart="66.02" from="-96739376#3" to="-265932530#11" departLane="best" type="veh_passenger"/>
    <trip id="veh30" depart="68.29" from="995053898#2" to="138961791#0" departLane="best" type="veh_passenger"/>
    <trip id="veh31" depart="70.57" from="-138961801#2" to="-125536091#1" departLane="best" type="veh_passenger"/>
    <trip id="veh32" depart="72.84" from="360682942#8" to="1153506885#2" departLane="best" type="veh_passenger"/>
    <trip id="veh33" depart="75.12" from="-127965587#2" to="-995053898#0" departLane="best" type="veh_passenger"/>
    <trip id="veh34" depart="77.40" from="995053897#6" to="139764419#6" departLane="best" type="veh_passenger"/>
    <trip id="veh35" depart="79.67" from="846682962#1" to="52336401#16" departLane="best" type="veh_passenger"/>
    <trip id="veh36" depart="81.95" from="-108541212" to="265945289#2" departLane="best" type="veh_passenger"/>
    <trip id="veh37" depart="84.23" from="178705682#1" to="148712504#2" departLane="best" type="veh_passenger"/>
    <trip id="veh38" depart="86.50" from="-303944211" to="172113859#11" departLane="best" type="veh_passenger"/>
    <trip id="veh39" depart="88.78" from="138961753#7" to="-172951880#3" departLane="best" type="veh_passenger"/>
    <trip id="veh40" depart="91.06" from="636657270" to="52345561#7" departLane="best" type="veh_passenger"/>
    <trip id="veh41" depart="93.33" from="-4454689#4" to="172113842#7" departLane="best" type="veh_passenger"/>
    <trip id="veh42" depart="95.61" from="172113767#0" to="-172113831#2" departLane="best" type="veh_passenger"/>
    <trip id="veh43" depart="97.89" from="302679724-AddedOnRampEdge" to="148712504#5" departLane="best" type="veh_passenger"/>
    <trip id="veh44" depart="100.16" from="303496561#4" to="139764478" departLane="best" type="veh_passenger"/>
    <trip id="veh45" depart="102.44" from="-102253853#1" to="-61238298#3" departLane="best" type="veh_passenger"/>
    <trip id="veh46" depart="104.71" from="-1090513361#1" to="646129239#0" departLane="best" type="veh_passenger"/>
    <trip id="veh47" depart="106.99" from="52372542#0" to="52159194#1" departLane="best" type="veh_passenger"/>
    <trip id="veh48" depart="109.27" from="-51819365" to="-1382756442#3" departLane="best" type="veh_passenger" departSpeed="max"/>
    <trip id="veh49" depart="111.54" from="52363145#3" to="721580061" departLane="best" type="veh_passenger"/>
    <trip id="veh50" depart="113.82" from="-138961774#9" to="138961753#6" departLane="best" type="veh_passenger"/>
    <trip id="veh51" depart="116.10" from="-1382756442#12" to="302679721" departLane="best" type="veh_passenger"/>
    <trip id="veh52" depart="118.37" from="302679733" to="-172113767#3" departLane="best" type="veh_passenger" departSpeed="max"/>
    <trip id="veh53" depart="120.65" from="-303496561#2" to="52363139#4" departLane="best" type="veh_passenger"/>
    <trip id="veh54" depart="122.93" from="139195478#3" to="266110066#3" departLane="best" type="veh_passenger"/>
    <trip id="veh55" depart="125.20" from="-173031741#1" to="-52372542#9" departLane="best" type="veh_passenger"/>
    <trip id="veh56" depart="127.48" from="-1382756442#5" to="172113839#1" departLane="best" type="veh_passenger"/>
    <trip id="veh57" depart="129.75" from="-240992809#6" to="61238304#2" departLane="best" type="veh_passenger"/>
    <trip id="veh58" depart="132.03" from="52336401#11" to="-138961774#4" departLane="best" type="veh_passenger"/>
    <trip id="veh59" depart="134.31" from="-180844271" to="-172113772#1" departLane="best" type="veh_passenger"/>
    <trip id="veh60" depart="136.58" from="721560630" to="170167984#4" departLane="best" type="veh_passenger" departSpeed="max"/>
    <trip id="veh61" depart="138.86" from="378371192-AddedOnRampEdge" to="-173031743#6" departLane="best" type="veh_passenger"/>
    <trip id="veh62" depart="141.14" from="265964496#1" to="178646783#4" departLane="best" type="veh_passenger"/>
    <trip id="veh63" depart="143.41" from="96739322#1" to="-148714021#3" departLane="best" type="veh_passenger"/>
    <trip id="veh64" depart="145.69" from="-995053897#1" to="-639204808#3" departLane="best" type="veh_passenger"/>
    <trip id="veh65" depart="147.97" from="52336401#17" to="-330852944#1" departLane="best" type="veh_passenger"/>
    <trip id="veh66" depart="150.24" from="-265945289#3" to="639204808#6" departLane="best" type="veh_passenger"/>
    <trip id="veh67" depart="152.52" from="1153506885#0" to="52336401#18" departLane="best" type="veh_passenger"/>
    <trip id="veh68" depart="154.79" from="148712504#5" to="-127965587#0" departLane="best" type="veh_passenger"/>
    <trip id="veh69" depart="157.07" from="997157573#0" to="52159194#21" departLane="best" type="veh_passenger"/>
    <trip id="veh70" depart="159.35" from="52310603#6" to="-172113859#14" departLane="best" type="veh_passenger"/>
    <trip id="veh71" depart="161.62" from="1364890337#0" to="-240992810#3" departLane="best" type="veh_passenger"/>
    <trip id="veh72" depart="163.90" from="-303496561#2" to="355359580#1" departLane="best" type="veh_passenger"/>
    <trip id="veh73" depart="166.18" from="1230670187#1" to="1153506885#4" departLane="best" type="veh_passenger"/>
    <trip id="veh74" depart="168.45" from="80877023#3" to="995053897#4" departLane="best" type="veh_passenger"/>
    <trip id="veh75" depart="170.73" from="148712505#2" to="265942997#1" departLane="best" type="veh_passenger"/>
    <trip id="veh76" depart="173.01" from="-172113781#8" to="-52363139#0" departLane="best" type="veh_passenger"/>
    <trip id="veh77" depart="175.28" from="846682962#0" to="172113686#1" departLane="best" type="veh_passenger" departSpeed="max"/>
    <trip id="veh78" depart="177.56" from="139764419#5" to="300856390" departLane="best" type="veh_passenger"/>
    <trip id="veh79" depart="179.84" from="-125536092" to="172113757#11" departLane="best" type="veh_passenger"/>
    <trip id="veh80" depart="182.11" from="138961756#0" to="52310604#4" departLane="best" type="veh_passenger"/>
    <trip id="veh81" depart="184.39" from="-138961774#11" to="-173031742#2" departLane="best" type="veh_passenger"/>
    <trip id="veh82" depart="186.66" from="172113757#11" to="178667610#1" departLane="best" type="veh_passenger"/>
    <trip id="veh83" depart="188.94" from="172113757#1" to="172113800#1" departLane="best" type="veh_passenger"/>
    <trip id="veh84" depart="191.22" from="108541223#5" to="172113757#1" departLane="best" type="veh_passenger"/>
    <trip id="veh85" depart="193.49" from="138961782#7" to="721560634" departLane="best" type="veh_passenger"/>
    <trip id="veh86" depart="195.77" from="-173031743#0" to="265939205#0" departLane="best" type="veh_passenger"/>
    <trip id="veh87" depart="198.05" from="173031743#4" to="-52363139#4" departLane="best" type="veh_passenger"/>
    <trip id="veh88" depart="200.32" from="-52345561#4" to="300958900" departLane="best" type="veh_passenger"/>
    <trip id="veh89" depart="202.60" from="-1382756442#9" to="-240992810#1" departLane="best" type="veh_passenger"/>
    <trip id="veh90" depart="204.88" from="-303496561#2" to="646129240#4" departLane="best" type="veh_passenger"/>
    <trip id="veh91" depart="207.15" from="52159194#14" to="240992810#1" departLane="best" type="veh_passenger"/>
    <trip id="veh92" depart="209.43" from="172113875#0" to="-108541223#0" departLane="best" type="veh_passenger"/>
    <trip id="veh93" depart="211.70" from="43588426" to="-52363139#3" departLane="best" type="veh_passenger" departSpeed="max"/>
    <trip id="veh94" depart="213.98" from="173031735#4" to="721560634" departLane="best" type="veh_passenger"/>
    <trip id="veh95" depart="216.26" from="-172113766#2" to="-172113757#7" departLane="best" type="veh_passenger"/>
    <trip id="veh96" depart="218.53" from="-139764419#3" to="148715738" departLane="best" type="veh_passenger"/>
    <trip id="veh97" depart="220.81" from="-355359580#1" to="172113772#2" departLane="best" type="veh_passenger"/>
    <trip id="veh98" depart="223.09" from="1382756442#2" to="61238304#2" departLane="best" type="veh_passenger"/>
    <trip id="veh99" depart="225.36" from="52310603#4" to="-139195478#2" departLane="best" type="veh_passenger"/>
    <trip id="veh100" depart="227.64" from="1090532650#2" to="-4454689#5" departLane="best" type="veh_passenger"/>
    <trip id="veh101" depart="229.92" from="-103025054" to="303486889#1" departLane="best" type="veh_passenger"/>
    <trip id="veh102" depart="232.19" from="172113839#10" to="-367703720#2" departLane="best" type="veh_passenger"/>
    <trip id="veh103" depart="234.47" from="-138961765#0" to="52372542#4" departLane="best" type="veh_passenger"/>
    <trip id="veh104" depart="236.75" from="61238304#0" to="148712505#3" departLane="best" type="veh_passenger" departSpeed="max"/>
    <trip id="veh105" depart="239.02" from="52159194#16" to="172113756#1" departLane="best" type="veh_passenger"/>
    <trip id="veh106" depart="241.30" from="-172113777#3" to="-172113767#10" departLane="best" type="veh_passenger" departSpeed="max"/>
    <trip id="veh107" depart="243.57" from="-51819365" to="603984471#1" departLane="best" type="veh_passenger" departSpeed="max"/>
    <trip id="veh108" depart="245.85" from="37125603" to="52336401#16" departLane="best" type="veh_passenger"/>
    <trip id="veh109" depart="248.13" from="61238298#0" to="-240992809#1" departLane="best" type="veh_passenger" departSpeed="max"/>
    <trip id="veh110" depart="250.40" from="-265945289#3" to="-152502123#0" departLane="best" type="veh_passenger"/>
    <trip id="veh111" depart="252.68" from="304112881" to="52372542#8" departLane="best" type="veh_passenger"/>
    <trip id="veh112" depart="254.96" from="-995053898#1" to="172113800#3" departLane="best" type="veh_passenger"/>
    <trip id="veh113" depart="257.23" from="-172113781#7" to="646129240#0" departLane="best" type="veh_passenger"/>
    <trip id="veh114" depart="259.51" from="52336401#23" to="93967943#1" departLane="best" type="veh_passenger"/>
    <trip id="veh115" depart="261.79" from="-542071805#0" to="646129240#2" departLane="best" type="veh_passenger"/>
    <trip id="veh116" depart="264.06" from="360520116#5" to="-172113650#1" departLane="best" type="veh_passenger"/>
    <trip id="veh117" depart="266.34" from="52363139#0" to="52336401#10" departLane="best" type="veh_passenger" departSpeed="max"/>
    <trip id="veh118" depart="268.61" from="125536092" to="-52372542#13" departLane="best" type="veh_passenger"/>
    <trip id="veh119" depart="270.89" from="37125603" to="-265942997#2" departLane="best" type="veh_passenger"/>
    <trip id="veh120" depart="273.17" from="-52372542#20" to="52336401#5" departLane="best" type="veh_passenger"/>
    <trip id="veh121" depart="275.44" from="172113842#0" to="108541223#5" departLane="best" type="veh_passenger"/>
    <trip id="veh122" depart="277.72" from="95150028#2" to="148712504#11" departLane="best" type="veh_passenger"/>
    <trip id="veh123" depart="280.00" from="721580057" to="-172113757#7" departLane="best" type="veh_passenger" departSpeed="max"/>
    <trip id="veh124" depart="282.27" from="846682962#0" to="-172951880#3" departLane="best" type="veh_passenger" departSpeed="max"/>
    <trip id="veh125" depart="284.55" from="-139764419#6" to="1218022932" departLane="best" type="veh_passenger"/>
    <trip id="veh126" depart="286.83" from="172113766#1" to="138961801#1" departLane="best" type="veh_passenger"/>
    <trip id="veh127" depart="289.10" from="-875802901" to="172113650#2" departLane="best" type="veh_passenger"/>
    <trip id="veh128" depart="291.38" from="139195478#2" to="265942997#3" departLane="best" type="veh_passenger"/>
    <trip id="veh129" depart="293.66" from="293434389#0" to="173031743#9" departLane="best" type="veh_passenger"/>
    <trip id="veh130" depart="295.93" from="-639204803" to="-138961774#2" departLane="best" type="veh_passenger" departSpeed="max"/>
    <trip id="veh131" depart="298.21" from="173031737" to="-61238304#4" departLane="best" type="veh_passenger"/>
    <trip id="veh132" depart="300.48" from="-52345561#0" to="52310603#6" departLane="best" type="veh_passenger"/>
    <trip id="veh133" depart="302.76" from="265942997#2" to="-52363139#5" departLane="best" type="veh_passenger"/>
    <trip id="veh134" depart="305.04" from="-995053897#0" to="-52345561#7" departLane="best" type="veh_passenger"/>
    <trip id="veh135" depart="307.31" from="-172113758#1" to="1153506884#0" departLane="best" type="veh_passenger"/>
    <trip id="veh136" depart="309.59" from="721580057" to="178667619#1" departLane="best" type="veh_passenger" departSpeed="max"/>
    <trip id="veh137" depart="311.87" from="61238301#2" to="172113781#5" departLane="best" type="veh_passenger"/>
    <trip id="veh138" depart="314.14" from="1092459378#0" to="172113686#1" departLane="best" type="veh_passenger"/>
    <trip id="veh139" depart="316.42" from="1153506884#0" to="-240992810#2" departLane="best" type="veh_passenger"/>
    <trip id="veh140" depart="318.70" from="37125603" to="-172113859#4" departLane="best" type="veh_passenger"/>
    <trip id="veh141" depart="320.97" from="172113829#0" to="-638354566#0" departLane="best" type="veh_passenger"/>
    <trip id="veh142" depart="323.25" from="43588426" to="300958900" departLane="best" type="veh_passenger" departSpeed="max"/>
    <trip id="veh143" depart="325.52" from="-173031735#4" to="-1092459382#0" departLane="best" type="veh_passenger"/>
    <trip id="veh144" depart="327.80" from="52310603#7" to="-138961774#8" departLane="best" type="veh_passenger"/>
    <trip id="veh145" depart="330.08" from="103531382#2" to="172113833" departLane="best" type="veh_passenger"/>
    <trip id="veh146" depart="332.35" from="-172951880#5" to="202773046#1" departLane="best" type="veh_passenger" departSpeed="max"/>
    <trip id="veh147" depart="334.63" from="138961753#1" to="-302679719#2" departLane="best" type="veh_passenger"/>
    <trip id="veh148" depart="336.91" from="300958902#1-AddedOffRampEdge" to="303486889#0" departLane="best" type="veh_passenger"/>
    <trip id="veh149" depart="339.18" from="-139764419#2" to="1153506885#8" departLane="best" type="veh_passenger"/>
    <trip id="veh150" depart="341.46" from="-172113842#3" to="80751557#1" departLane="best" type="veh_passenger"/>
    <trip id="veh151" depart="343.74" from="138961774#9" to="-127965587#0" departLane="best" type="veh_passenger"/>
    <trip id="veh152" depart="346.01" from="-265945289#2" to="52310603#6" departLane="best" type="veh_passenger"/>
    <trip id="veh153" depart="348.29" from="1230670187#4" to="373074931#4" departLane="best" type="veh_passenger"/>
    <trip id="veh154" depart="350.56" from="172113757#2" to="721580061" departLane="best" type="veh_passenger"/>
    <trip id="veh155" depart="352.84" from="265942997#1" to="138961776#0" departLane="best" type="veh_passenger"/>
    <trip id="veh156" depart="355.12" from="51819348#1" to="148712505#5" departLane="best" type="veh_passenger"/>
    <trip id="veh157" depart="357.39" from="61238298#0" to="293434389#7" departLane="best" type="veh_passenger" departSpeed="max"/>
    <trip id="veh158" depart="359.67" from="-265942997#2" to="172113842#4" departLane="best" type="veh_passenger"/>
    <trip id="veh159" depart="361.95" from="302679733" to="139184504" departLane="best" type="veh_passenger" departSpeed="max"/>
    <trip id="veh160" depart="364.22" from="172113800#4" to="-4454689#1" departLane="best" type="veh_passenger"/>
    <trip id="veh161" depart="366.50" from="-138961765#5" to="-51793804#0" departLane="best" type="veh_passenger"/>
    <trip id="veh162" depart="368.78" from="-355359580#0" to="-603984471#0" departLane="best" type="veh_passenger"/>
    <trip id="veh163" depart="371.05" from="139764419#1" to="-172113781#5" departLane="best" type="veh_passenger"/>
    <trip id="veh164" depart="373.33" from="240992810#5" to="-138961765#2" departLane="best" type="veh_passenger"/>
    <trip id="veh165" depart="375.61" from="-995053898#4" to="148712504#9" departLane="best" type="veh_passenger"/>
    <trip id="veh166" depart="377.88" from="108541212" to="-202235551" departLane="best" type="veh_passenger"/>
    <trip id="veh167" depart="380.16" from="108852804" to="61238301#2" departLane="best" type="veh_passenger"/>
    <trip id="veh168" depart="382.43" from="170167984#9" to="202235551" departLane="best" type="veh_passenger"/>
    <trip id="veh169" depart="384.71" from="52310605#7" to="302679724-AddedOnRampEdge" departLane="best" type="veh_passenger"/>
    <trip id="veh170" depart="386.99" from="-84951989#0" to="-1076422514" departLane="best" type="veh_passenger"/>
    <trip id="veh171" depart="389.26" from="-61238304#3" to="300958902#0" departLane="best" type="veh_passenger"/>
    <trip id="veh172" depart="391.54" from="52310604#4" to="72493301#5" departLane="best" type="veh_passenger"/>
    <trip id="veh173" depart="393.82" from="108541223#5" to="300856390" departLane="best" type="veh_passenger"/>
    <trip id="veh174" depart="396.09" from="148712504#10" to="172113767#9" departLane="best" type="veh_passenger"/>
    <trip id="veh175" depart="398.37" from="-995053897#4" to="-172113859#12" departLane="best" type="veh_passenger"/>
    <trip id="veh176" depart="400.65" from="130583811" to="-172113767#10" departLane="best" type="veh_passenger" departSpeed="max"/>
    <trip id="veh177" depart="402.92" from="172113781#7" to="-1092459382#5" departLane="best" type="veh_passenger"/>
    <trip id="veh178" depart="405.20" from="-1092459378#0" to="172113859#15" departLane="best" type="veh_passenger"/>
    <trip id="veh179" depart="407.47" from="-1227867315#4" to="-995053897#2" departLane="best" type="veh_passenger"/>
    <trip id="veh180" depart="409.75" from="-178646783#2" to="-61238304#0" departLane="best" type="veh_passenger"/>
    <trip id="veh181" depart="412.03" from="302679724-AddedOnRampEdge" to="-995053897#2" departLane="best" type="veh_passenger"/>
    <trip id="veh182" depart="414.30" from="300958902#1-AddedOffRampEdge" to="52159194#1" departLane="best" type="veh_passenger"/>
    <trip id="veh183" depart="416.58" from="-265964495#3" to="-139183088#0" departLane="best" type="veh_passenger"/>
    <trip id="veh184" depart="418.86" from="-1090513361#1" to="148712504#5" departLane="best" type="veh_passenger"/>
    <trip id="veh185" depart="421.13" from="997157573#1" to="-80877023#1" departLane="best" type="veh_passenger"/>
    <trip id="veh186" depart="423.41" from="172113859#19" to="330852944#4" departLane="best" type="veh_passenger"/>
    <trip id="veh187" depart="425.69" from="172113859#4" to="300958902#1" departLane="best" type="veh_passenger"/>
    <trip id="veh188" depart="427.96" from="-1090532650#1" to="-172113831#1" departLane="best" type="veh_passenger"/>
    <trip id="veh189" depart="430.24" from="-172113757#8" to="173031743#6" departLane="best" type="veh_passenger"/>
    <trip id="veh190" depart="432.52" from="202773046#0" to="302679724-AddedOnRampEdge" departLane="best" type="veh_passenger"/>
    <trip id="veh191" depart="434.79" from="-172113831#2" to="172113777#0" departLane="best" type="veh_passenger"/>
    <trip id="veh192" depart="437.07" from="300958902#0" to="-172113757#5" departLane="best" type="veh_passenger"/>
    <trip id="veh193" depart="439.34" from="43763460" to="81707205" departLane="best" type="veh_passenger"/>
    <trip id="veh194" depart="441.62" from="-139764419#6" to="-1092459382#2" departLane="best" type="veh_passenger"/>
    <trip id="veh195" depart="443.90" from="-52159197#4" to="178667619#1" departLane="best" type="veh_passenger"/>
    <trip id="veh196" depart="446.17" from="182810276#0" to="172113829#1" departLane="best" type="veh_passenger"/>
    <trip id="veh197" depart="448.45" from="-139184507#1" to="303486890" departLane="best" type="veh_passenger"/>
    <trip id="veh198" depart="450.73" from="52310604#1" to="172113767#4" departLane="best" type="veh_passenger"/>
    <trip id="veh199" depart="453.00" from="138961760#2" to="-639527626#0" departLane="best" type="veh_passenger"/>
    <trip id="veh200" depart="455.28" from="-139195480" to="80877023#1" departLane="best" type="veh_passenger"/>
    <trip id="veh201" depart="457.56" from="172113831#3" to="51819349#1" departLane="best" type="veh_passenger"/>
    <trip id="veh202" depart="459.83" from="290661268#0" to="81707221" departLane="best" type="veh_passenger"/>
    <trip id="veh203" depart="462.11" from="-330852945#1" to="379871027#1" departLane="best" type="veh_passenger"/>
    <trip id="veh204" depart="464.38" from="139195478#1" to="138961753#3" departLane="best" type="veh_passenger"/>
    <trip id="veh205" depart="466.66" from="1095787453" to="266110066#4" departLane="best" type="veh_passenger"/>
    <trip id="veh206" depart="468.94" from="-330852944#1" to="52310604#3" departLane="best" type="veh_passenger"/>
    <trip id="veh207" depart="471.21" from="51819348#1" to="-139183088#6" departLane="best" type="veh_passenger"/>
    <trip id="veh208" depart="473.49" from="52372542#15" to="-302679719#2" departLane="best" type="veh_passenger"/>
    <trip id="veh209" depart="475.77" from="127965587#3" to="172113777#3" departLane="best" type="veh_passenger"/>
    <trip id="veh210" depart="478.04" from="-846682957" to="-1104195709#0" departLane="best" type="veh_passenger"/>
    <trip id="veh211" depart="480.32" from="52310604#2" to="-173031735#4" departLane="best" type="veh_passenger"/>
    <trip id="veh212" depart="482.60" from="240992809#1" to="-4454689#4" departLane="best" type="veh_passenger"/>
    <trip id="veh213" depart="484.87" from="-103531382#1" to="721580061" departLane="best" type="veh_passenger"/>
    <trip id="veh214" depart="487.15" from="-138961774#9" to="265945289#0" departLane="best" type="veh_passenger"/>
    <trip id="veh215" depart="489.43" from="1382756442#2" to="301000408#1" departLane="best" type="veh_passenger"/>
    <trip id="veh216" depart="491.70" from="182810276#0" to="172113859#4" departLane="best" type="veh_passenger"/>
    <trip id="veh217" depart="493.98" from="1382756442#6" to="367703720#1" departLane="best" type="veh_passenger"/>
    <trip id="veh218" depart="496.25" from="185201366#0" to="-52372542#15" departLane="best" type="veh_passenger"/>
    <trip id="veh219" depart="498.53" from="170167984#4" to="1382756442#10" departLane="best" type="veh_passenger"/>
    <trip id="veh220" depart="500.81" from="139183088#14" to="117966619#0" departLane="best" type="veh_passenger"/>
    <trip id="veh221" depart="503.08" from="300958899" to="-61238304#5" departLane="best" type="veh_passenger"/>
    <trip id="veh222" depart="505.36" from="-265964495#2" to="-172113758#5" departLane="best" type="veh_passenger"/>
    <trip id="veh223" depart="507.64" from="139184507#0" to="302679721-AddedOffRampEdge" departLane="best" type="veh_passenger"/>
    <trip id="veh224" depart="509.91" from="86434216" to="139195478#1" departLane="best" type="veh_passenger" departSpeed="max"/>
    <trip id="veh225" depart="512.19" from="-172951880#4" to="-265942997#2" departLane="best" type="veh_passenger"/>
    <trip id="veh226" depart="514.47" from="-172113859#10" to="-1090513361#0" departLane="best" type="veh_passenger"/>
    <trip id="veh227" depart="516.74" from="139183088#9" to="-4454689#0" departLane="best" type="veh_passenger"/>
    <trip id="veh228" depart="519.02" from="86384359#1" to="148715738" departLane="best" type="veh_passenger"/>
    <trip id="veh229" depart="521.29" from="52345561#2" to="138961756#1" departLane="best" type="veh_passenger"/>
    <trip id="veh230" depart="523.57" from="52363139#0" to="172113635#1" departLane="best" type="veh_passenger" departSpeed="max"/>
    <trip id="veh231" depart="525.85" from="-172113859#3" to="-127965587#2" departLane="best" type="veh_passenger"/>
    <trip id="veh232" depart="528.12" from="721580057" to="1382756442#8" departLane="best" type="veh_passenger" departSpeed="max"/>
    <trip id="veh233" depart="530.40" from="4484482" to="108852804" departLane="best" type="veh_passenger"/>
    <trip id="veh234" depart="532.68" from="-1382756443#1" to="172113831#3" departLane="best" type="veh_passenger"/>
    <trip id="veh235" depart="534.95" from="-123986379" to="-172113816#1" departLane="best" type="veh_passenger" departSpeed="max"/>
    <trip id="veh236" depart="537.23" from="995053897#1" to="-172113758#12" departLane="best" type="veh_passenger"/>
    <trip id="veh237" depart="539.51" from="302679726" to="172113772#2" departLane="best" type="veh_passenger"/>
    <trip id="veh238" depart="541.78" from="360682942#5" to="-265939205#1" departLane="best" type="veh_passenger"/>
    <trip id="veh239" depart="544.06" from="138961782#7" to="127965583#2" departLane="best" type="veh_passenger"/>
    <trip id="veh240" depart="546.34" from="1153506884#1" to="52336401#13" departLane="best" type="veh_passenger"/>
    <trip id="veh241" depart="548.61" from="172113781#4" to="172113777#3" departLane="best" type="veh_passenger"/>
    <trip id="veh242" depart="550.89" from="290784827" to="721580061" departLane="best" type="veh_passenger"/>
    <trip id="veh243" depart="553.16" from="-173031743#6" to="-240992809#5" departLane="best" type="veh_passenger"/>
    <trip id="veh244" depart="555.44" from="172951880#3" to="-172113839#5" departLane="best" type="veh_passenger"/>
    <trip id="veh245" depart="557.72" from="-172113839#9" to="-138961782#5" departLane="best" type="veh_passenger"/>